
   --- Expanded Deck Component Count ---
C's 3
D's 2
R's 5
V's 2
tot: 12


    --- Expanded Netlist ---
* C:\ASD\Dioder\Exercise\DiodeCircuit.asc
d1 n002 0 1 
r_dc dc_in n002 5 
r§scopech2 ch1 0 10000000 
v1 dc_in 0 4 
c1 ch1 0 15p
r1 n002 ch1 1meg
c2 n002 ch1 14p
d2 ch2 0 1 
r_dc1 n001 ch2 5 
r§scopech1 ch2 0 10000000 
v2 n001 0 4 
c3 ch2 0 15p
.model 1 d(is=2.52n rs=.568 n=1.752 cjo=4p m=.4 tt=20n iave=200m vpk=75 mfg=onsemi type=silicon) 
.op
.end

Direct Newton iteration for .op point succeeded.
Semiconductor Device Operating Points:
                        --- Diodes ---
Name:      d2          d1
Model:      1           1
Id:      5.62e-01    5.62e-01
Vd:      1.19e+00    1.19e+00
Req:     8.06e-02    8.06e-02
CAP:     2.48e-07    2.48e-07



Date: Tue Jan 26 09:00:23 2021
Total elapsed time: 0.489 seconds.

tnom = 27
temp = 27
method = trap
totiter = 13
traniter = 0
tranpoints = 0
accept = 0
rejected = 0
matrix size = 9
fillins = 0
Matrix Compiler1: 322 bytes object code size
Matrix Compiler2: 639 bytes object code size
