
   --- Expanded Deck Component Count ---
D's 1
R's 3
V's 1
tot: 5


    --- Expanded Netlist ---
* C:\ASD\Dioder\Exercise\Draft1.asc
r1 ch2 0 10
v1 ch1 0 sine(2 4 50)
r2 ch1 0 10000000 
r3 ch2 0 10000000 
d1 ch1 ch2 d
.model d d
.tran 20m
.end

Direct Newton iteration for .op point succeeded.

Date: Tue Jan 26 07:33:44 2021
Total elapsed time: 0.130 seconds.

tnom = 27
temp = 27
method = trap
totiter = 2101
traniter = 2092
tranpoints = 1042
accept = 1042
rejected = 0
matrix size = 3
fillins = 0
solver = Alternate
Matrix Compiler1: 96 bytes object code size  0.0/0.0/[0.0]
Matrix Compiler2: 181 bytes object code size  0.0/0.0/[0.0]

