
   --- Expanded Deck Component Count ---
D's 1
R's 4
V's 1
tot: 6


    --- Expanded Netlist ---
* C:\ASD\Dioder\Exercise\Simuleringer\DUT_SETUP.asc
v1 n001 0 sine(2.5 2.5 50)
d1 ch1 ch2 1 
r1 ch2 0 10 pwr=2
rg ch1 n001 50
rs_ch1 ch1 0 10000000 
rs_ch2 ch2 0 10000000 
.model 1 d(is=2.52n rs=.568 n=1.752 cjo=4p m=.4 tt=20n iave=200m vpk=75 mfg=onsemi type=silicon) 
.tran 0.08 
.end

Direct Newton iteration for .op point succeeded.
.step dut=1
.step dut=2

Date: Sun Jan 31 09:34:07 2021
Total elapsed time: 0.128 seconds.

tnom = 27
temp = 27
method = trap
totiter = 2130
traniter = 2126
tranpoints = 1042
accept = 1042
rejected = 0
matrix size = 5
fillins = 0
solver = Normal
Matrix Compiler1: off  [0.0]/0.0/0.1
Matrix Compiler2: off  [0.0]/0.0/0.0

