
   --- Expanded Deck Component Count ---
D's 1
R's 3
V's 2
tot: 6


    --- Expanded Netlist ---
* C:\ASD\Dioder\Exercise\Draft1.asc
r2 ch2 0 10
v1 ch1 0 sine(2.5v 2.5v 50hz)
r1 ch1 ch2 1k
r3 ch4 0 10
v2 ch3 0 sine(2.5v 2.5v 50hz)
d1 ch3 ch4 1n914
.model 1n914 d(is=2.52n rs=.568 n=1.752 cjo=4p m=.4 tt=20n iave=200m vpk=75 mfg=onsemi type=silicon)
.tran 20m
.end

Direct Newton iteration for .op point succeeded.

Date: Sat Jan 30 09:06:38 2021
Total elapsed time: 0.345 seconds.

tnom = 27
temp = 27
method = trap
totiter = 2089
traniter = 2082
tranpoints = 1042
accept = 1042
rejected = 0
matrix size = 7
fillins = 0
solver = Normal
Matrix Compiler1: 178 bytes object code size  0.0/0.0/[0.0]
Matrix Compiler2: 413 bytes object code size  0.1/0.0/[0.0]

